10
Lattice="0.0 0.0 0.0 0.0 0.0 0.0 0.0 0.0 0.0" Properties=species:S:1:pos:R:3:Z:I:1 pbc="F F F"
C      0.60571100       1.74655000       0.00000000        6 
C      0.60571100       0.40408300       0.00000000        6 
C     -0.60571100      -0.40408300       0.00000000        6 
C     -0.60571100      -1.74655000       0.00000000        6 
H      1.52761700       2.31744300       0.00000000        1 
H     -0.32113200       2.31311600       0.00000000        1 
H      1.55350300      -0.13364000       0.00000000        1 
H     -1.55350300       0.13364000       0.00000000        1 
H      0.32113200      -2.31311600       0.00000000        1 
H     -1.52761700      -2.31744300       0.00000000        1 
