6
Lattice="0.0 0.0 0.0 0.0 0.0 0.0 0.0 0.0 0.0" Properties=species:S:1:pos:R:3:Z:I:1 pbc="F F F"
C      0.00000000       0.00000000       0.66748000        6 
C      0.00000000       0.00000000      -0.66748000        6 
H      0.00000000       0.92283200       1.23769500        1 
H      0.00000000      -0.92283200       1.23769500        1 
H      0.00000000       0.92283200      -1.23769500        1 
H      0.00000000      -0.92283200      -1.23769500        1 
