7
Lattice="0.0 0.0 0.0 0.0 0.0 0.0 0.0 0.0 0.0" Properties=species:S:1:pos:R:3:Z:I:1 pbc="F F F"
C      0.00000000       0.00000000       0.21494700        6 
C      0.00000000       0.00000000       1.43313000        6 
C      0.00000000       0.00000000      -1.24647600        6 
H      0.00000000       0.00000000       2.49888700        1 
H      0.00000000       1.02114500      -1.63616700        1 
H      0.88433700      -0.51057200      -1.63616700        1 
H     -0.88433700      -0.51057200      -1.63616700        1 
