13
Lattice="0.0 0.0 0.0 0.0 0.0 0.0 0.0 0.0 0.0" Properties=species:S:1:pos:R:3:Z:I:1 pbc="F F F"
N      0.00000000       0.00000000       0.39584600        7 
C      0.00000000       1.37802100      -0.06517500        6 
C      1.19340100      -0.68901100      -0.06517500        6 
C     -1.19340100      -0.68901100      -0.06517500        6 
H      0.00000000       1.46114200      -1.16789900        1 
H      0.88615600       1.89105200       0.31765500        1 
H     -0.88615600       1.89105200       0.31765500        1 
H      1.26538600      -0.73057100      -1.16789900        1 
H      1.19462100      -1.71296000       0.31765500        1 
H      2.08077700      -0.17809200       0.31765500        1 
H     -1.26538600      -0.73057100      -1.16789900        1 
H     -2.08077700      -0.17809200       0.31765500        1 
H     -1.19462100      -1.71296000       0.31765500        1 
