10
Lattice="0.0 0.0 0.0 0.0 0.0 0.0 0.0 0.0 0.0" Properties=species:S:1:pos:R:3:Z:I:1 pbc="F F F"
H      0.00000000       0.00000000       2.12929600        1 
N      0.00000000       0.00000000       1.11868400        7 
C      0.00000000       1.12451600       0.33356500        6 
C      0.00000000      -1.12451600       0.33356500        6 
C      0.00000000       0.70840700      -0.98380700        6 
C      0.00000000      -0.70840700      -0.98380700        6 
H      0.00000000       2.11287200       0.77049600        1 
H      0.00000000      -2.11287200       0.77049600        1 
H      0.00000000       1.35725200      -1.84908500        1 
H      0.00000000      -1.35725200      -1.84908500        1 
