3
Lattice="0.0 0.0 0.0 0.0 0.0 0.0 0.0 0.0 0.0" Properties=species:S:1:pos:R:3:Z:I:1:magmoms:R:1 pbc="F F F"
C      0.00000000       0.00000000      -0.46262800        6       0.00000000 
C      0.00000000       0.00000000       0.71716200        6       1.00000000 
H      0.00000000       0.00000000      -1.52719800        1       0.00000000 
