6
Lattice="0.0 0.0 0.0 0.0 0.0 0.0 0.0 0.0 0.0" Properties=species:S:1:pos:R:3:Z:I:1 pbc="F F F"
C     -0.04713100       0.66438900       0.00000000        6 
O     -0.04713100      -0.75855100       0.00000000        8 
H     -1.09299500       0.96978500       0.00000000        1 
H      0.87853400      -1.04845800       0.00000000        1 
H      0.43714500       1.08037600       0.89177200        1 
H      0.43714500       1.08037600      -0.89177200        1 
