5
Lattice="0.0 0.0 0.0 0.0 0.0 0.0 0.0 0.0 0.0" Properties=species:S:1:pos:R:3:Z:I:1 pbc="F F F"
C      0.00000000       0.00000000       0.00000000        6 
H      0.62911800       0.62911800       0.62911800        1 
H     -0.62911800      -0.62911800       0.62911800        1 
H      0.62911800      -0.62911800      -0.62911800        1 
H     -0.62911800       0.62911800      -0.62911800        1 
